ZUMO-ROBOT
*SPICE Netlist generated by Advanced Sim server on 28.10.2023 15:37:00
.options MixedSimGenerated

*Schematic Netlist:
VV? NetV?_1 0 5 AC 1 0

.PLOT {V(Co1)} =PLOT(1) =AXIS(1)

*Selected Circuit Analyses:
.AC DEC 10 1K 1G

.END